*SPEF "ieee 1481-1999"
*DESIGN "b64_memory"
*DATE "20:34:31 Tuesday December 09, 2025"
*VENDOR "The OpenROAD Project"
*PROGRAM "OpenROAD"
*VERSION "v2.0-26293-g53af9e7c4e"
*DESIGN_FLOW "NAME_SCOPE LOCAL" "PIN_CAP NONE"
*DIVIDER /
*DELIMITER :
*BUS_DELIMITER []
*T_UNIT 1 NS
*C_UNIT 1 PF
*R_UNIT 1 OHM
*L_UNIT 1 HENRY

*NAME_MAP
*3 _000_
*4 _001_
*5 _002_
*6 _003_
*7 _004_
*8 _005_
*9 _006_
*10 _007_
*11 _008_
*12 _009_
*13 _010_
*14 _011_
*15 _012_
*16 _013_
*17 _014_
*18 _015_
*19 _016_
*20 _017_
*21 _018_
*22 _019_
*23 _020_
*24 _021_
*25 _022_
*26 _023_
*27 _024_
*28 _025_
*29 _026_
*30 _027_
*31 _028_
*32 _029_
*33 _030_
*34 _031_
*35 _032_
*36 _033_
*37 _034_
*38 _035_
*39 _036_
*40 _037_
*41 _038_
*42 _039_
*43 _040_
*44 _041_
*45 _042_
*46 _043_
*47 _044_
*48 _045_
*49 _046_
*50 _047_
*51 _048_
*52 _049_
*53 _050_
*54 _051_
*55 _052_
*56 _053_
*57 _054_
*58 _055_
*59 _056_
*60 _057_
*61 _058_
*62 _059_
*63 _060_
*64 _061_
*65 _062_
*66 _063_
*67 _064_
*68 _065_
*69 _066_
*70 _067_
*71 _068_
*72 _069_
*73 _070_
*74 _071_
*75 _072_
*76 _073_
*77 _074_
*78 _075_
*79 _076_
*80 _077_
*81 _078_
*82 _079_
*83 _080_
*84 _081_
*85 _082_
*86 _083_
*87 _084_
*88 _085_
*89 _086_
*90 _087_
*91 _088_
*92 _089_
*93 _090_
*94 _091_
*95 _092_
*96 _093_
*97 _094_
*98 _095_
*99 _096_
*100 _097_
*101 _098_
*102 _099_
*103 _100_
*104 _101_
*105 _102_
*106 _103_
*107 _104_
*108 _105_
*109 _106_
*110 _107_
*111 _108_
*112 _109_
*113 _110_
*114 _111_
*115 _112_
*116 _113_
*117 _114_
*118 _115_
*119 _116_
*120 _117_
*121 _118_
*122 _119_
*123 _120_
*124 _121_
*125 _122_
*126 _123_
*127 _124_
*128 _125_
*129 _126_
*130 _127_
*131 _128_
*132 _129_
*133 _130_
*134 _131_
*135 _132_
*136 _133_
*137 _134_
*138 _135_
*139 _136_
*140 _137_
*141 _138_
*142 _139_
*143 _140_
*144 _141_
*145 _142_
*146 _143_
*147 _144_
*148 _145_
*149 _146_
*150 _147_
*151 _148_
*152 _149_
*153 _150_
*154 _151_
*155 _152_
*156 _153_
*157 _154_
*158 _155_
*159 _156_
*160 _157_
*161 _158_
*162 _159_
*163 _160_
*164 _161_
*165 _162_
*166 _163_
*167 _164_
*168 _165_
*169 _166_
*170 _167_
*171 _168_
*172 _169_
*173 addr[0]
*174 addr[1]
*175 addr[2]
*176 clk
*177 rddata[0]
*178 rddata[1]
*179 rddata[2]
*180 rddata[3]
*181 rddata[4]
*182 rddata[5]
*183 rddata[6]
*184 rddata[7]
*185 rem_memory_temp\[0\][0]
*186 rem_memory_temp\[0\][1]
*187 rem_memory_temp\[0\][2]
*188 rem_memory_temp\[0\][3]
*189 rem_memory_temp\[0\][4]
*190 rem_memory_temp\[0\][5]
*191 rem_memory_temp\[0\][6]
*192 rem_memory_temp\[0\][7]
*193 rem_memory_temp\[1\][0]
*194 rem_memory_temp\[1\][1]
*195 rem_memory_temp\[1\][2]
*196 rem_memory_temp\[1\][3]
*197 rem_memory_temp\[1\][4]
*198 rem_memory_temp\[1\][5]
*199 rem_memory_temp\[1\][6]
*200 rem_memory_temp\[1\][7]
*201 rem_memory_temp\[2\][0]
*202 rem_memory_temp\[2\][1]
*203 rem_memory_temp\[2\][2]
*204 rem_memory_temp\[2\][3]
*205 rem_memory_temp\[2\][4]
*206 rem_memory_temp\[2\][5]
*207 rem_memory_temp\[2\][6]
*208 rem_memory_temp\[2\][7]
*209 rem_memory_temp\[3\][0]
*210 rem_memory_temp\[3\][1]
*211 rem_memory_temp\[3\][2]
*212 rem_memory_temp\[3\][3]
*213 rem_memory_temp\[3\][4]
*214 rem_memory_temp\[3\][5]
*215 rem_memory_temp\[3\][6]
*216 rem_memory_temp\[3\][7]
*217 rem_memory_temp\[4\][0]
*218 rem_memory_temp\[4\][1]
*219 rem_memory_temp\[4\][2]
*220 rem_memory_temp\[4\][3]
*221 rem_memory_temp\[4\][4]
*222 rem_memory_temp\[4\][5]
*223 rem_memory_temp\[4\][6]
*224 rem_memory_temp\[4\][7]
*225 rem_memory_temp\[5\][0]
*226 rem_memory_temp\[5\][1]
*227 rem_memory_temp\[5\][2]
*228 rem_memory_temp\[5\][3]
*229 rem_memory_temp\[5\][4]
*230 rem_memory_temp\[5\][5]
*231 rem_memory_temp\[5\][6]
*232 rem_memory_temp\[5\][7]
*233 rem_memory_temp\[6\][0]
*234 rem_memory_temp\[6\][1]
*235 rem_memory_temp\[6\][2]
*236 rem_memory_temp\[6\][3]
*237 rem_memory_temp\[6\][4]
*238 rem_memory_temp\[6\][5]
*239 rem_memory_temp\[6\][6]
*240 rem_memory_temp\[6\][7]
*241 rem_memory_temp\[7\][0]
*242 rem_memory_temp\[7\][1]
*243 rem_memory_temp\[7\][2]
*244 rem_memory_temp\[7\][3]
*245 rem_memory_temp\[7\][4]
*246 rem_memory_temp\[7\][5]
*247 rem_memory_temp\[7\][6]
*248 rem_memory_temp\[7\][7]
*249 rst
*250 we
*251 wrdata[0]
*252 wrdata[1]
*253 wrdata[2]
*254 wrdata[3]
*255 wrdata[4]
*256 wrdata[5]
*257 wrdata[6]
*258 wrdata[7]
*259 VPWR1
*260 VGND2
*261 net3
*262 net4
*263 net5
*264 net6
*265 net7
*266 net8
*267 net9
*268 net10
*269 net11
*270 net12
*271 net13
*272 net14
*273 net15
*274 net16
*275 net17
*276 net18
*277 net19
*278 net20
*279 net21
*280 net22
*281 net23
*282 net24
*283 net25
*284 net26
*285 net27
*286 net28
*287 net29
*288 net30
*289 net31
*290 net32
*291 net33
*292 net34
*293 net35
*294 net36
*295 net37
*296 net38
*297 net39
*298 net40
*299 net41
*300 net42
*301 net43
*302 net44
*303 net45
*304 net46
*305 net47
*306 net48
*307 net49
*308 net50
*309 net51
*310 net52
*311 net53
*312 net54
*313 clknet_0_clk
*314 clknet_3_0__leaf_clk
*315 clknet_3_1__leaf_clk
*316 clknet_3_2__leaf_clk
*317 clknet_3_3__leaf_clk
*318 clknet_3_4__leaf_clk
*319 clknet_3_5__leaf_clk
*320 clknet_3_6__leaf_clk
*321 clknet_3_7__leaf_clk
*322 net55
*323 net56
*324 net57
*325 net58
*326 net59
*327 net60
*328 net61
*329 net62
*330 _170_
*331 _171_
*332 _172_
*333 _173_
*334 _174_
*335 _175_
*336 _176_
*337 _177_
*338 _178_
*339 _179_
*340 _180_
*341 _181_
*342 _182_
*343 _183_
*344 _184_
*345 _185_
*346 _186_
*347 _187_
*348 _188_
*349 _189_
*350 _190_
*351 _191_
*352 _192_
*353 _193_
*354 _194_
*355 _195_
*356 _196_
*357 _197_
*358 _198_
*359 _199_
*360 _200_
*361 _201_
*362 _202_
*363 _203_
*364 _204_
*365 _205_
*366 _206_
*367 _207_
*368 _208_
*369 _209_
*370 _210_
*371 _211_
*372 _212_
*373 _213_
*374 _214_
*375 _215_
*376 _216_
*377 _217_
*378 _218_
*379 _219_
*380 _220_
*381 _221_
*382 _222_
*383 _223_
*384 _224_
*385 _225_
*386 _226_
*387 _227_
*388 _228_
*389 _229_
*390 _230_
*391 _231_
*392 _232_
*393 _233_
*394 _234_
*395 _235_
*396 _236_
*397 _237_
*398 _238_
*399 _239_
*400 _240_
*401 _241_
*402 _242_
*403 _243_
*404 _244_
*405 _245_
*406 _246_
*407 _247_
*408 _248_
*409 _249_
*410 _250_
*411 _251_
*412 _252_
*413 _253_
*414 _254_
*415 _255_
*416 _256_
*417 _257_
*418 _258_
*419 _259_
*420 _260_
*421 _261_
*422 _262_
*423 _263_
*424 _264_
*425 _265_
*426 _266_
*427 _267_
*428 _268_
*429 _269_
*430 _270_
*431 _271_
*432 _272_
*433 _273_
*434 _274_
*435 _275_
*436 _276_
*437 _277_
*438 _278_
*439 _279_
*440 _280_
*441 _281_
*442 _282_
*443 _283_
*444 _284_
*445 _285_
*446 _286_
*447 _287_
*448 _288_
*449 _289_
*450 _290_
*451 _291_
*452 _292_
*453 _293_
*454 _294_
*455 _295_
*456 _296_
*457 _297_
*458 _298_
*459 _299_
*460 _300_
*461 _301_
*462 _302_
*463 _303_
*464 _304_
*465 _305_
*466 _306_
*467 _307_
*468 _308_
*469 _309_
*470 _310_
*471 _311_
*472 _312_
*473 _313_
*474 _314_
*475 _315_
*476 _316_
*477 _317_
*478 _318_
*479 _319_
*480 _320_
*481 _321_
*482 _322_
*483 _323_
*484 _324_
*485 _325_
*486 _326_
*487 _327_
*488 _328_
*489 _329_
*490 _330_
*491 _331_
*492 _332_
*493 _333_
*494 _334_
*495 _335_
*496 _336_
*497 _337_
*498 _338_
*499 _339_
*500 _340_
*501 _341_
*502 _342_
*503 _343_
*504 _344_
*505 _345_
*506 _346_
*507 _347_
*508 _348_
*509 _349_
*510 _350_
*511 _351_
*512 _352_
*513 _353_
*514 _354_
*515 _355_
*516 _356_
*517 _357_
*518 _358_
*519 _359_
*520 _360_
*521 _361_
*522 _362_
*523 _363_
*524 _364_
*525 _365_
*526 _366_
*527 _367_
*528 _368_
*529 _369_
*530 _370_
*531 _371_
*532 _372_
*533 _373_
*534 _374_
*535 _375_
*536 _376_
*537 _377_
*538 _378_
*539 _379_
*540 _380_
*541 _381_
*542 _382_
*543 _383_
*544 _384_
*545 _385_
*546 _386_
*547 _387_
*548 _388_
*549 _389_
*550 _390_
*551 _391_
*552 _392_
*553 _393_
*554 _394_
*555 _395_
*556 _396_
*557 _397_
*558 _398_
*559 _399_
*560 _400_
*561 _401_
*562 _402_
*563 _403_
*564 _404_
*565 _405_
*566 _406_
*567 _407_
*568 _408_
*569 _409_
*570 _410_
*571 _411_
*572 TAP_TAPCELL_ROW_0_0
*573 TAP_TAPCELL_ROW_0_1
*574 TAP_TAPCELL_ROW_0_2
*575 TAP_TAPCELL_ROW_0_3
*576 TAP_TAPCELL_ROW_0_4
*577 TAP_TAPCELL_ROW_0_5
*578 TAP_TAPCELL_ROW_0_6
*579 TAP_TAPCELL_ROW_0_7
*580 TAP_TAPCELL_ROW_0_8
*581 TAP_TAPCELL_ROW_1_9
*582 TAP_TAPCELL_ROW_1_10
*583 TAP_TAPCELL_ROW_1_11
*584 TAP_TAPCELL_ROW_1_12
*585 TAP_TAPCELL_ROW_2_13
*586 TAP_TAPCELL_ROW_2_14
*587 TAP_TAPCELL_ROW_2_15
*588 TAP_TAPCELL_ROW_2_16
*589 TAP_TAPCELL_ROW_2_17
*590 TAP_TAPCELL_ROW_3_18
*591 TAP_TAPCELL_ROW_3_19
*592 TAP_TAPCELL_ROW_3_20
*593 TAP_TAPCELL_ROW_3_21
*594 TAP_TAPCELL_ROW_4_22
*595 TAP_TAPCELL_ROW_4_23
*596 TAP_TAPCELL_ROW_4_24
*597 TAP_TAPCELL_ROW_4_25
*598 TAP_TAPCELL_ROW_4_26
*599 TAP_TAPCELL_ROW_5_27
*600 TAP_TAPCELL_ROW_5_28
*601 TAP_TAPCELL_ROW_5_29
*602 TAP_TAPCELL_ROW_5_30
*603 TAP_TAPCELL_ROW_6_31
*604 TAP_TAPCELL_ROW_6_32
*605 TAP_TAPCELL_ROW_6_33
*606 TAP_TAPCELL_ROW_6_34
*607 TAP_TAPCELL_ROW_6_35
*608 TAP_TAPCELL_ROW_7_36
*609 TAP_TAPCELL_ROW_7_37
*610 TAP_TAPCELL_ROW_7_38
*611 TAP_TAPCELL_ROW_7_39
*612 TAP_TAPCELL_ROW_8_40
*613 TAP_TAPCELL_ROW_8_41
*614 TAP_TAPCELL_ROW_8_42
*615 TAP_TAPCELL_ROW_8_43
*616 TAP_TAPCELL_ROW_8_44
*617 TAP_TAPCELL_ROW_9_45
*618 TAP_TAPCELL_ROW_9_46
*619 TAP_TAPCELL_ROW_9_47
*620 TAP_TAPCELL_ROW_9_48
*621 TAP_TAPCELL_ROW_10_49
*622 TAP_TAPCELL_ROW_10_50
*623 TAP_TAPCELL_ROW_10_51
*624 TAP_TAPCELL_ROW_10_52
*625 TAP_TAPCELL_ROW_10_53
*626 TAP_TAPCELL_ROW_11_54
*627 TAP_TAPCELL_ROW_11_55
*628 TAP_TAPCELL_ROW_11_56
*629 TAP_TAPCELL_ROW_11_57
*630 TAP_TAPCELL_ROW_12_58
*631 TAP_TAPCELL_ROW_12_59
*632 TAP_TAPCELL_ROW_12_60
*633 TAP_TAPCELL_ROW_12_61
*634 TAP_TAPCELL_ROW_12_62
*635 TAP_TAPCELL_ROW_13_63
*636 TAP_TAPCELL_ROW_13_64
*637 TAP_TAPCELL_ROW_13_65
*638 TAP_TAPCELL_ROW_13_66
*639 TAP_TAPCELL_ROW_14_67
*640 TAP_TAPCELL_ROW_14_68
*641 TAP_TAPCELL_ROW_14_69
*642 TAP_TAPCELL_ROW_14_70
*643 TAP_TAPCELL_ROW_14_71
*644 TAP_TAPCELL_ROW_15_72
*645 TAP_TAPCELL_ROW_15_73
*646 TAP_TAPCELL_ROW_15_74
*647 TAP_TAPCELL_ROW_15_75
*648 TAP_TAPCELL_ROW_16_76
*649 TAP_TAPCELL_ROW_16_77
*650 TAP_TAPCELL_ROW_16_78
*651 TAP_TAPCELL_ROW_16_79
*652 TAP_TAPCELL_ROW_16_80
*653 TAP_TAPCELL_ROW_17_81
*654 TAP_TAPCELL_ROW_17_82
*655 TAP_TAPCELL_ROW_17_83
*656 TAP_TAPCELL_ROW_17_84
*657 TAP_TAPCELL_ROW_18_85
*658 TAP_TAPCELL_ROW_18_86
*659 TAP_TAPCELL_ROW_18_87
*660 TAP_TAPCELL_ROW_18_88
*661 TAP_TAPCELL_ROW_18_89
*662 TAP_TAPCELL_ROW_19_90
*663 TAP_TAPCELL_ROW_19_91
*664 TAP_TAPCELL_ROW_19_92
*665 TAP_TAPCELL_ROW_19_93
*666 TAP_TAPCELL_ROW_20_94
*667 TAP_TAPCELL_ROW_20_95
*668 TAP_TAPCELL_ROW_20_96
*669 TAP_TAPCELL_ROW_20_97
*670 TAP_TAPCELL_ROW_20_98
*671 TAP_TAPCELL_ROW_21_99
*672 TAP_TAPCELL_ROW_21_100
*673 TAP_TAPCELL_ROW_21_101
*674 TAP_TAPCELL_ROW_21_102
*675 TAP_TAPCELL_ROW_22_103
*676 TAP_TAPCELL_ROW_22_104
*677 TAP_TAPCELL_ROW_22_105
*678 TAP_TAPCELL_ROW_22_106
*679 TAP_TAPCELL_ROW_22_107
*680 TAP_TAPCELL_ROW_23_108
*681 TAP_TAPCELL_ROW_23_109
*682 TAP_TAPCELL_ROW_23_110
*683 TAP_TAPCELL_ROW_23_111
*684 TAP_TAPCELL_ROW_24_112
*685 TAP_TAPCELL_ROW_24_113
*686 TAP_TAPCELL_ROW_24_114
*687 TAP_TAPCELL_ROW_24_115
*688 TAP_TAPCELL_ROW_24_116
*689 TAP_TAPCELL_ROW_25_117
*690 TAP_TAPCELL_ROW_25_118
*691 TAP_TAPCELL_ROW_25_119
*692 TAP_TAPCELL_ROW_25_120
*693 TAP_TAPCELL_ROW_26_121
*694 TAP_TAPCELL_ROW_26_122
*695 TAP_TAPCELL_ROW_26_123
*696 TAP_TAPCELL_ROW_26_124
*697 TAP_TAPCELL_ROW_26_125
*698 TAP_TAPCELL_ROW_27_126
*699 TAP_TAPCELL_ROW_27_127
*700 TAP_TAPCELL_ROW_27_128
*701 TAP_TAPCELL_ROW_27_129
*702 TAP_TAPCELL_ROW_27_130
*703 TAP_TAPCELL_ROW_27_131
*704 TAP_TAPCELL_ROW_27_132
*705 TAP_TAPCELL_ROW_27_133
*706 TAP_TAPCELL_ROW_27_134
*707 load_slew1
*708 max_cap2
*709 max_cap3
*710 wire4
*711 load_slew5
*712 load_slew6
*713 wire7
*714 load_slew8
*715 load_slew9
*716 load_slew10
*717 max_cap11
*718 load_slew12
*719 wire13
*720 load_slew14
*721 load_slew15
*722 wire16
*723 wire17
*724 max_cap18
*725 wire19
*726 wire20
*727 load_slew21
*728 wire22
*729 wire23
*730 load_slew24
*731 load_slew25
*732 fanout26
*733 load_slew27
*734 wire28
*735 load_slew29
*736 load_slew30
*737 load_slew31
*738 load_slew32
*739 load_slew33
*740 load_slew34
*741 fanout35
*742 load_slew36
*743 load_slew37
*744 wire38
*745 wire39
*746 load_slew40
*747 load_slew41
*748 fanout42
*749 fanout43
*750 fanout44
*751 fanout45
*752 fanout46
*753 fanout47
*754 load_slew48
*755 load_slew49
*756 load_slew50
*757 load_slew51
*758 load_slew52
*759 clkbuf_0_clk
*760 clkbuf_3_0__f_clk
*761 clkbuf_3_1__f_clk
*762 clkbuf_3_2__f_clk
*763 clkbuf_3_3__f_clk
*764 clkbuf_3_4__f_clk
*765 clkbuf_3_5__f_clk
*766 clkbuf_3_6__f_clk
*767 clkbuf_3_7__f_clk
*768 clkload0
*769 clkload1
*770 clkload2
*771 clkload3
*772 clkload4
*773 clkload5
*774 clkload6
*775 hold53
*776 hold54
*777 hold55
*778 hold56
*779 hold57
*780 hold58
*781 hold59
*782 hold60
*783 FILLER_0_0
*784 FILLER_0_8
*785 FILLER_0_16
*786 FILLER_0_20
*787 FILLER_0_26
*788 FILLER_0_31
*789 FILLER_0_38
*790 FILLER_0_46
*791 FILLER_0_54
*792 FILLER_0_58
*793 FILLER_0_61
*794 FILLER_0_69
*795 FILLER_0_77
*796 FILLER_0_81
*797 FILLER_0_86
*798 FILLER_0_91
*799 FILLER_0_95
*800 FILLER_0_97
*801 FILLER_0_116
*802 FILLER_0_121
*803 FILLER_0_129
*804 FILLER_0_137
*805 FILLER_0_145
*806 FILLER_0_149
*807 FILLER_0_151
*808 FILLER_0_155
*809 FILLER_0_162
*810 FILLER_0_170
*811 FILLER_0_178
*812 FILLER_0_181
*813 FILLER_0_189
*814 FILLER_0_197
*815 FILLER_0_205
*816 FILLER_0_209
*817 FILLER_0_211
*818 FILLER_0_219
*819 FILLER_0_227
*820 FILLER_0_235
*821 FILLER_0_239
*822 FILLER_0_241
*823 FILLER_0_249
*824 FILLER_0_257
*825 FILLER_0_265
*826 FILLER_0_269
*827 FILLER_0_271
*828 FILLER_0_279
*829 FILLER_0_281
*830 FILLER_1_0
*831 FILLER_1_8
*832 FILLER_1_12
*833 FILLER_1_17
*834 FILLER_1_45
*835 FILLER_1_53
*836 FILLER_1_57
*837 FILLER_1_59
*838 FILLER_1_61
*839 FILLER_1_69
*840 FILLER_1_71
*841 FILLER_1_76
*842 FILLER_1_84
*843 FILLER_1_109
*844 FILLER_1_117
*845 FILLER_1_119
*846 FILLER_1_121
*847 FILLER_1_129
*848 FILLER_1_137
*849 FILLER_1_143
*850 FILLER_1_151
*851 FILLER_1_163
*852 FILLER_1_171
*853 FILLER_1_179
*854 FILLER_1_181
*855 FILLER_1_189
*856 FILLER_1_197
*857 FILLER_1_205
*858 FILLER_1_209
*859 FILLER_1_211
*860 FILLER_1_236
*861 FILLER_1_241
*862 FILLER_1_269
*863 FILLER_1_277
*864 FILLER_1_281
*865 FILLER_2_0
*866 FILLER_2_8
*867 FILLER_2_16
*868 FILLER_2_26
*869 FILLER_2_31
*870 FILLER_2_59
*871 FILLER_2_67
*872 FILLER_2_71
*873 FILLER_2_76
*874 FILLER_2_86
*875 FILLER_2_91
*876 FILLER_2_119
*877 FILLER_2_127
*878 FILLER_2_135
*879 FILLER_2_139
*880 FILLER_2_146
*881 FILLER_2_151
*882 FILLER_2_179
*883 FILLER_2_187
*884 FILLER_2_195
*885 FILLER_2_199
*886 FILLER_2_201
*887 FILLER_2_206
*888 FILLER_2_211
*889 FILLER_2_215
*890 FILLER_2_241
*891 FILLER_2_263
*892 FILLER_2_267
*893 FILLER_2_269
*894 FILLER_2_271
*895 FILLER_2_279
*896 FILLER_2_281
*897 FILLER_3_0
*898 FILLER_3_4
*899 FILLER_3_10
*900 FILLER_3_22
*901 FILLER_3_50
*902 FILLER_3_58
*903 FILLER_3_61
*904 FILLER_3_75
*905 FILLER_3_85
*906 FILLER_3_113
*907 FILLER_3_117
*908 FILLER_3_119
*909 FILLER_3_121
*910 FILLER_3_129
*911 FILLER_3_133
*912 FILLER_3_138
*913 FILLER_3_148
*914 FILLER_3_176
*915 FILLER_3_181
*916 FILLER_3_189
*917 FILLER_3_197
*918 FILLER_3_201
*919 FILLER_3_207
*920 FILLER_3_215
*921 FILLER_3_225
*922 FILLER_3_229
*923 FILLER_3_236
*924 FILLER_3_241
*925 FILLER_3_269
*926 FILLER_3_277
*927 FILLER_3_281
*928 FILLER_4_0
*929 FILLER_4_8
*930 FILLER_4_16
*931 FILLER_4_26
*932 FILLER_4_31
*933 FILLER_4_57
*934 FILLER_4_65
*935 FILLER_4_69
*936 FILLER_4_71
*937 FILLER_4_76
*938 FILLER_4_86
*939 FILLER_4_91
*940 FILLER_4_119
*941 FILLER_4_127
*942 FILLER_4_131
*943 FILLER_4_136
*944 FILLER_4_146
*945 FILLER_4_151
*946 FILLER_4_179
*947 FILLER_4_187
*948 FILLER_4_195
*949 FILLER_4_203
*950 FILLER_4_207
*951 FILLER_4_209
*952 FILLER_4_211
*953 FILLER_4_215
*954 FILLER_4_223
*955 FILLER_4_233
*956 FILLER_4_261
*957 FILLER_4_269
*958 FILLER_4_271
*959 FILLER_4_279
*960 FILLER_4_281
*961 FILLER_5_0
*962 FILLER_5_8
*963 FILLER_5_20
*964 FILLER_5_48
*965 FILLER_5_56
*966 FILLER_5_61
*967 FILLER_5_69
*968 FILLER_5_74
*969 FILLER_5_82
*970 FILLER_5_110
*971 FILLER_5_118
*972 FILLER_5_121
*973 FILLER_5_129
*974 FILLER_5_137
*975 FILLER_5_143
*976 FILLER_5_171
*977 FILLER_5_179
*978 FILLER_5_181
*979 FILLER_5_189
*980 FILLER_5_197
*981 FILLER_5_201
*982 FILLER_5_206
*983 FILLER_5_214
*984 FILLER_5_224
*985 FILLER_5_228
*986 FILLER_5_236
*987 FILLER_5_241
*988 FILLER_5_249
*989 FILLER_5_257
*990 FILLER_5_265
*991 FILLER_5_273
*992 FILLER_5_281
*993 FILLER_6_0
*994 FILLER_6_8
*995 FILLER_6_16
*996 FILLER_6_20
*997 FILLER_6_26
*998 FILLER_6_31
*999 FILLER_6_35
*1000 FILLER_6_41
*1001 FILLER_6_49
*1002 FILLER_6_57
*1003 FILLER_6_65
*1004 FILLER_6_76
*1005 FILLER_6_86
*1006 FILLER_6_91
*1007 FILLER_6_99
*1008 FILLER_6_107
*1009 FILLER_6_115
*1010 FILLER_6_123
*1011 FILLER_6_131
*1012 FILLER_6_139
*1013 FILLER_6_147
*1014 FILLER_6_149
*1015 FILLER_6_151
*1016 FILLER_6_159
*1017 FILLER_6_185
*1018 FILLER_6_193
*1019 FILLER_6_201
*1020 FILLER_6_206
*1021 FILLER_6_211
*1022 FILLER_6_215
*1023 FILLER_6_217
*1024 FILLER_6_242
*1025 FILLER_6_264
*1026 FILLER_6_268
*1027 FILLER_6_271
*1028 FILLER_6_279
*1029 FILLER_6_281
*1030 FILLER_7_0
*1031 FILLER_7_8
*1032 FILLER_7_16
*1033 FILLER_7_42
*1034 FILLER_7_50
*1035 FILLER_7_58
*1036 FILLER_7_61
*1037 FILLER_7_69
*1038 FILLER_7_77
*1039 FILLER_7_105
*1040 FILLER_7_113
*1041 FILLER_7_117
*1042 FILLER_7_119
*1043 FILLER_7_121
*1044 FILLER_7_129
*1045 FILLER_7_137
*1046 FILLER_7_143
*1047 FILLER_7_171
*1048 FILLER_7_179
*1049 FILLER_7_181
*1050 FILLER_7_189
*1051 FILLER_7_197
*1052 FILLER_7_201
*1053 FILLER_7_206
*1054 FILLER_7_216
*1055 FILLER_7_220
*1056 FILLER_7_228
*1057 FILLER_7_236
*1058 FILLER_7_241
*1059 FILLER_7_269
*1060 FILLER_7_277
*1061 FILLER_7_281
*1062 FILLER_8_0
*1063 FILLER_8_8
*1064 FILLER_8_16
*1065 FILLER_8_26
*1066 FILLER_8_31
*1067 FILLER_8_39
*1068 FILLER_8_43
*1069 FILLER_8_69
*1070 FILLER_8_77
*1071 FILLER_8_79
*1072 FILLER_8_86
*1073 FILLER_8_91
*1074 FILLER_8_99
*1075 FILLER_8_107
*1076 FILLER_8_115
*1077 FILLER_8_123
*1078 FILLER_8_131
*1079 FILLER_8_136
*1080 FILLER_8_146
*1081 FILLER_8_151
*1082 FILLER_8_161
*1083 FILLER_8_171
*1084 FILLER_8_179
*1085 FILLER_8_187
*1086 FILLER_8_195
*1087 FILLER_8_203
*1088 FILLER_8_207
*1089 FILLER_8_209
*1090 FILLER_8_211
*1091 FILLER_8_219
*1092 FILLER_8_247
*1093 FILLER_8_255
*1094 FILLER_8_263
*1095 FILLER_8_267
*1096 FILLER_8_269
*1097 FILLER_8_271
*1098 FILLER_8_279
*1099 FILLER_8_281
*1100 FILLER_9_0
*1101 FILLER_9_8
*1102 FILLER_9_12
*1103 FILLER_9_17
*1104 FILLER_9_45
*1105 FILLER_9_55
*1106 FILLER_9_59
*1107 FILLER_9_61
*1108 FILLER_9_69
*1109 FILLER_9_75
*1110 FILLER_9_103
*1111 FILLER_9_111
*1112 FILLER_9_119
*1113 FILLER_9_121
*1114 FILLER_9_129
*1115 FILLER_9_133
*1116 FILLER_9_139
*1117 FILLER_9_167
*1118 FILLER_9_175
*1119 FILLER_9_179
*1120 FILLER_9_181
*1121 FILLER_9_189
*1122 FILLER_9_197
*1123 FILLER_9_205
*1124 FILLER_9_209
*1125 FILLER_9_216
*1126 FILLER_9_226
*1127 FILLER_9_236
*1128 FILLER_9_241
*1129 FILLER_9_249
*1130 FILLER_9_257
*1131 FILLER_9_265
*1132 FILLER_9_273
*1133 FILLER_9_281
*1134 FILLER_10_0
*1135 FILLER_10_8
*1136 FILLER_10_16
*1137 FILLER_10_26
*1138 FILLER_10_31
*1139 FILLER_10_59
*1140 FILLER_10_72
*1141 FILLER_10_86
*1142 FILLER_10_91
*1143 FILLER_10_117
*1144 FILLER_10_130
*1145 FILLER_10_138
*1146 FILLER_10_140
*1147 FILLER_10_146
*1148 FILLER_10_151
*1149 FILLER_10_177
*1150 FILLER_10_190
*1151 FILLER_10_198
*1152 FILLER_10_206
*1153 FILLER_10_211
*1154 FILLER_10_239
*1155 FILLER_10_247
*1156 FILLER_10_255
*1157 FILLER_10_263
*1158 FILLER_10_267
*1159 FILLER_10_269
*1160 FILLER_10_271
*1161 FILLER_10_279
*1162 FILLER_10_281
*1163 FILLER_11_0
*1164 FILLER_11_8
*1165 FILLER_11_12
*1166 FILLER_11_14
*1167 FILLER_11_21
*1168 FILLER_11_49
*1169 FILLER_11_57
*1170 FILLER_11_59
*1171 FILLER_11_61
*1172 FILLER_11_69
*1173 FILLER_11_73
*1174 FILLER_11_85
*1175 FILLER_11_113
*1176 FILLER_11_117
*1177 FILLER_11_119
*1178 FILLER_11_121
*1179 FILLER_11_129
*1180 FILLER_11_137
*1181 FILLER_11_162
*1182 FILLER_11_170
*1183 FILLER_11_178
*1184 FILLER_11_181
*1185 FILLER_11_189
*1186 FILLER_11_197
*1187 FILLER_11_199
*1188 FILLER_11_204
*1189 FILLER_11_232
*1190 FILLER_11_241
*1191 FILLER_11_245
*1192 FILLER_11_256
*1193 FILLER_11_264
*1194 FILLER_11_272
*1195 FILLER_11_280
*1196 FILLER_12_0
*1197 FILLER_12_8
*1198 FILLER_12_16
*1199 FILLER_12_26
*1200 FILLER_12_31
*1201 FILLER_12_57
*1202 FILLER_12_71
*1203 FILLER_12_75
*1204 FILLER_12_77
*1205 FILLER_12_86
*1206 FILLER_12_91
*1207 FILLER_12_101
*1208 FILLER_12_111
*1209 FILLER_12_119
*1210 FILLER_12_127
*1211 FILLER_12_135
*1212 FILLER_12_137
*1213 FILLER_12_146
*1214 FILLER_12_151
*1215 FILLER_12_159
*1216 FILLER_12_167
*1217 FILLER_12_169
*1218 FILLER_12_175
*1219 FILLER_12_203
*1220 FILLER_12_207
*1221 FILLER_12_209
*1222 FILLER_12_211
*1223 FILLER_12_219
*1224 FILLER_12_238
*1225 FILLER_12_266
*1226 FILLER_12_271
*1227 FILLER_12_279
*1228 FILLER_12_281
*1229 FILLER_13_0
*1230 FILLER_13_8
*1231 FILLER_13_16
*1232 FILLER_13_20
*1233 FILLER_13_45
*1234 FILLER_13_53
*1235 FILLER_13_57
*1236 FILLER_13_59
*1237 FILLER_13_61
*1238 FILLER_13_65
*1239 FILLER_13_74
*1240 FILLER_13_78
*1241 FILLER_13_103
*1242 FILLER_13_111
*1243 FILLER_13_119
*1244 FILLER_13_121
*1245 FILLER_13_125
*1246 FILLER_13_127
*1247 FILLER_13_134
*1248 FILLER_13_162
*1249 FILLER_13_170
*1250 FILLER_13_178
*1251 FILLER_13_181
*1252 FILLER_13_189
*1253 FILLER_13_191
*1254 FILLER_13_216
*1255 FILLER_13_224
*1256 FILLER_13_232
*1257 FILLER_13_241
*1258 FILLER_13_269
*1259 FILLER_13_277
*1260 FILLER_13_281
*1261 FILLER_14_0
*1262 FILLER_14_8
*1263 FILLER_14_16
*1264 FILLER_14_20
*1265 FILLER_14_26
*1266 FILLER_14_31
*1267 FILLER_14_41
*1268 FILLER_14_49
*1269 FILLER_14_57
*1270 FILLER_14_65
*1271 FILLER_14_73
*1272 FILLER_14_78
*1273 FILLER_14_86
*1274 FILLER_14_91
*1275 FILLER_14_99
*1276 FILLER_14_107
*1277 FILLER_14_115
*1278 FILLER_14_123
*1279 FILLER_14_127
*1280 FILLER_14_129
*1281 FILLER_14_136
*1282 FILLER_14_146
*1283 FILLER_14_151
*1284 FILLER_14_159
*1285 FILLER_14_167
*1286 FILLER_14_171
*1287 FILLER_14_173
*1288 FILLER_14_182
*1289 FILLER_14_192
*1290 FILLER_14_202
*1291 FILLER_14_211
*1292 FILLER_14_215
*1293 FILLER_14_220
*1294 FILLER_14_228
*1295 FILLER_14_236
*1296 FILLER_14_240
*1297 FILLER_14_266
*1298 FILLER_14_271
*1299 FILLER_14_279
*1300 FILLER_14_281
*1301 FILLER_15_0
*1302 FILLER_15_8
*1303 FILLER_15_16
*1304 FILLER_15_24
*1305 FILLER_15_49
*1306 FILLER_15_57
*1307 FILLER_15_59
*1308 FILLER_15_61
*1309 FILLER_15_69
*1310 FILLER_15_77
*1311 FILLER_15_79
*1312 FILLER_15_86
*1313 FILLER_15_98
*1314 FILLER_15_108
*1315 FILLER_15_116
*1316 FILLER_15_121
*1317 FILLER_15_129
*1318 FILLER_15_136
*1319 FILLER_15_144
*1320 FILLER_15_152
*1321 FILLER_15_160
*1322 FILLER_15_168
*1323 FILLER_15_176
*1324 FILLER_15_181
*1325 FILLER_15_191
*1326 FILLER_15_199
*1327 FILLER_15_207
*1328 FILLER_15_215
*1329 FILLER_15_222
*1330 FILLER_15_232
*1331 FILLER_15_241
*1332 FILLER_15_269
*1333 FILLER_15_277
*1334 FILLER_15_281
*1335 FILLER_16_0
*1336 FILLER_16_8
*1337 FILLER_16_16
*1338 FILLER_16_26
*1339 FILLER_16_31
*1340 FILLER_16_57
*1341 FILLER_16_65
*1342 FILLER_16_69
*1343 FILLER_16_74
*1344 FILLER_16_78
*1345 FILLER_16_86
*1346 FILLER_16_91
*1347 FILLER_16_119
*1348 FILLER_16_127
*1349 FILLER_16_135
*1350 FILLER_16_143
*1351 FILLER_16_147
*1352 FILLER_16_149
*1353 FILLER_16_151
*1354 FILLER_16_159
*1355 FILLER_16_163
*1356 FILLER_16_165
*1357 FILLER_16_171
*1358 FILLER_16_199
*1359 FILLER_16_207
*1360 FILLER_16_209
*1361 FILLER_16_211
*1362 FILLER_16_239
*1363 FILLER_16_256
*1364 FILLER_16_264
*1365 FILLER_16_268
*1366 FILLER_16_271
*1367 FILLER_16_279
*1368 FILLER_16_281
*1369 FILLER_17_0
*1370 FILLER_17_4
*1371 FILLER_17_11
*1372 FILLER_17_21
*1373 FILLER_17_29
*1374 FILLER_17_31
*1375 FILLER_17_56
*1376 FILLER_17_61
*1377 FILLER_17_69
*1378 FILLER_17_74
*1379 FILLER_17_88
*1380 FILLER_17_116
*1381 FILLER_17_121
*1382 FILLER_17_134
*1383 FILLER_17_142
*1384 FILLER_17_146
*1385 FILLER_17_158
*1386 FILLER_17_166
*1387 FILLER_17_176
*1388 FILLER_17_181
*1389 FILLER_17_213
*1390 FILLER_17_217
*1391 FILLER_17_236
*1392 FILLER_17_241
*1393 FILLER_17_269
*1394 FILLER_17_277
*1395 FILLER_17_281
*1396 FILLER_18_0
*1397 FILLER_18_8
*1398 FILLER_18_16
*1399 FILLER_18_26
*1400 FILLER_18_31
*1401 FILLER_18_39
*1402 FILLER_18_43
*1403 FILLER_18_69
*1404 FILLER_18_73
*1405 FILLER_18_75
*1406 FILLER_18_82
*1407 FILLER_18_91
*1408 FILLER_18_119
*1409 FILLER_18_135
*1410 FILLER_18_143
*1411 FILLER_18_147
*1412 FILLER_18_149
*1413 FILLER_18_151
*1414 FILLER_18_155
*1415 FILLER_18_161
*1416 FILLER_18_169
*1417 FILLER_18_179
*1418 FILLER_18_192
*1419 FILLER_18_202
*1420 FILLER_18_211
*1421 FILLER_18_219
*1422 FILLER_18_245
*1423 FILLER_18_249
*1424 FILLER_18_254
*1425 FILLER_18_262
*1426 FILLER_18_271
*1427 FILLER_18_279
*1428 FILLER_18_281
*1429 FILLER_19_0
*1430 FILLER_19_8
*1431 FILLER_19_12
*1432 FILLER_19_14
*1433 FILLER_19_19
*1434 FILLER_19_47
*1435 FILLER_19_55
*1436 FILLER_19_59
*1437 FILLER_19_61
*1438 FILLER_19_65
*1439 FILLER_19_72
*1440 FILLER_19_82
*1441 FILLER_19_110
*1442 FILLER_19_118
*1443 FILLER_19_121
*1444 FILLER_19_129
*1445 FILLER_19_137
*1446 FILLER_19_145
*1447 FILLER_19_154
*1448 FILLER_19_164
*1449 FILLER_19_172
*1450 FILLER_19_181
*1451 FILLER_19_191
*1452 FILLER_19_199
*1453 FILLER_19_207
*1454 FILLER_19_211
*1455 FILLER_19_217
*1456 FILLER_19_230
*1457 FILLER_19_238
*1458 FILLER_19_241
*1459 FILLER_19_269
*1460 FILLER_19_277
*1461 FILLER_19_281
*1462 FILLER_20_0
*1463 FILLER_20_8
*1464 FILLER_20_16
*1465 FILLER_20_20
*1466 FILLER_20_26
*1467 FILLER_20_31
*1468 FILLER_20_39
*1469 FILLER_20_43
*1470 FILLER_20_51
*1471 FILLER_20_59
*1472 FILLER_20_63
*1473 FILLER_20_68
*1474 FILLER_20_76
*1475 FILLER_20_86
*1476 FILLER_20_91
*1477 FILLER_20_101
*1478 FILLER_20_105
*1479 FILLER_20_125
*1480 FILLER_20_133
*1481 FILLER_20_141
*1482 FILLER_20_149
*1483 FILLER_20_151
*1484 FILLER_20_163
*1485 FILLER_20_171
*1486 FILLER_20_184
*1487 FILLER_20_194
*1488 FILLER_20_203
*1489 FILLER_20_207
*1490 FILLER_20_209
*1491 FILLER_20_211
*1492 FILLER_20_219
*1493 FILLER_20_227
*1494 FILLER_20_235
*1495 FILLER_20_243
*1496 FILLER_20_251
*1497 FILLER_20_259
*1498 FILLER_20_267
*1499 FILLER_20_269
*1500 FILLER_20_271
*1501 FILLER_20_279
*1502 FILLER_20_281
*1503 FILLER_21_0
*1504 FILLER_21_8
*1505 FILLER_21_16
*1506 FILLER_21_44
*1507 FILLER_21_52
*1508 FILLER_21_61
*1509 FILLER_21_69
*1510 FILLER_21_77
*1511 FILLER_21_81
*1512 FILLER_21_106
*1513 FILLER_21_114
*1514 FILLER_21_118
*1515 FILLER_21_121
*1516 FILLER_21_129
*1517 FILLER_21_137
*1518 FILLER_21_145
*1519 FILLER_21_149
*1520 FILLER_21_174
*1521 FILLER_21_178
*1522 FILLER_21_181
*1523 FILLER_21_193
*1524 FILLER_21_201
*1525 FILLER_21_209
*1526 FILLER_21_217
*1527 FILLER_21_221
*1528 FILLER_21_226
*1529 FILLER_21_236
*1530 FILLER_21_241
*1531 FILLER_21_269
*1532 FILLER_21_277
*1533 FILLER_21_281
*1534 FILLER_22_0
*1535 FILLER_22_8
*1536 FILLER_22_16
*1537 FILLER_22_26
*1538 FILLER_22_31
*1539 FILLER_22_39
*1540 FILLER_22_47
*1541 FILLER_22_51
*1542 FILLER_22_61
*1543 FILLER_22_69
*1544 FILLER_22_74
*1545 FILLER_22_83
*1546 FILLER_22_87
*1547 FILLER_22_89
*1548 FILLER_22_91
*1549 FILLER_22_95
*1550 FILLER_22_104
*1551 FILLER_22_108
*1552 FILLER_22_119
*1553 FILLER_22_127
*1554 FILLER_22_135
*1555 FILLER_22_139
*1556 FILLER_22_141
*1557 FILLER_22_146
*1558 FILLER_22_151
*1559 FILLER_22_155
*1560 FILLER_22_164
*1561 FILLER_22_186
*1562 FILLER_22_190
*1563 FILLER_22_200
*1564 FILLER_22_208
*1565 FILLER_22_211
*1566 FILLER_22_219
*1567 FILLER_22_245
*1568 FILLER_22_258
*1569 FILLER_22_266
*1570 FILLER_22_271
*1571 FILLER_22_279
*1572 FILLER_22_281
*1573 FILLER_23_0
*1574 FILLER_23_4
*1575 FILLER_23_6
*1576 FILLER_23_11
*1577 FILLER_23_21
*1578 FILLER_23_49
*1579 FILLER_23_57
*1580 FILLER_23_59
*1581 FILLER_23_61
*1582 FILLER_23_69
*1583 FILLER_23_75
*1584 FILLER_23_103
*1585 FILLER_23_111
*1586 FILLER_23_119
*1587 FILLER_23_121
*1588 FILLER_23_129
*1589 FILLER_23_135
*1590 FILLER_23_145
*1591 FILLER_23_173
*1592 FILLER_23_177
*1593 FILLER_23_179
*1594 FILLER_23_181
*1595 FILLER_23_189
*1596 FILLER_23_205
*1597 FILLER_23_215
*1598 FILLER_23_219
*1599 FILLER_23_221
*1600 FILLER_23_228
*1601 FILLER_23_236
*1602 FILLER_23_241
*1603 FILLER_23_269
*1604 FILLER_23_277
*1605 FILLER_23_281
*1606 FILLER_24_0
*1607 FILLER_24_4
*1608 FILLER_24_12
*1609 FILLER_24_26
*1610 FILLER_24_31
*1611 FILLER_24_59
*1612 FILLER_24_63
*1613 FILLER_24_71
*1614 FILLER_24_83
*1615 FILLER_24_87
*1616 FILLER_24_89
*1617 FILLER_24_91
*1618 FILLER_24_119
*1619 FILLER_24_131
*1620 FILLER_24_139
*1621 FILLER_24_146
*1622 FILLER_24_151
*1623 FILLER_24_179
*1624 FILLER_24_195
*1625 FILLER_24_206
*1626 FILLER_24_211
*1627 FILLER_24_219
*1628 FILLER_24_247
*1629 FILLER_24_257
*1630 FILLER_24_265
*1631 FILLER_24_269
*1632 FILLER_24_271
*1633 FILLER_24_279
*1634 FILLER_24_281
*1635 FILLER_25_0
*1636 FILLER_25_8
*1637 FILLER_25_12
*1638 FILLER_25_19
*1639 FILLER_25_47
*1640 FILLER_25_55
*1641 FILLER_25_59
*1642 FILLER_25_61
*1643 FILLER_25_69
*1644 FILLER_25_77
*1645 FILLER_25_105
*1646 FILLER_25_113
*1647 FILLER_25_117
*1648 FILLER_25_119
*1649 FILLER_25_121
*1650 FILLER_25_125
*1651 FILLER_25_130
*1652 FILLER_25_143
*1653 FILLER_25_171
*1654 FILLER_25_179
*1655 FILLER_25_181
*1656 FILLER_25_207
*1657 FILLER_25_215
*1658 FILLER_25_223
*1659 FILLER_25_230
*1660 FILLER_25_238
*1661 FILLER_25_241
*1662 FILLER_25_269
*1663 FILLER_25_277
*1664 FILLER_25_281
*1665 FILLER_26_0
*1666 FILLER_26_8
*1667 FILLER_26_16
*1668 FILLER_26_26
*1669 FILLER_26_31
*1670 FILLER_26_57
*1671 FILLER_26_61
*1672 FILLER_26_66
*1673 FILLER_26_76
*1674 FILLER_26_86
*1675 FILLER_26_91
*1676 FILLER_26_119
*1677 FILLER_26_127
*1678 FILLER_26_129
*1679 FILLER_26_136
*1680 FILLER_26_146
*1681 FILLER_26_151
*1682 FILLER_26_167
*1683 FILLER_26_180
*1684 FILLER_26_206
*1685 FILLER_26_211
*1686 FILLER_26_219
*1687 FILLER_26_226
*1688 FILLER_26_254
*1689 FILLER_26_262
*1690 FILLER_26_271
*1691 FILLER_26_279
*1692 FILLER_26_281
*1693 FILLER_27_0
*1694 FILLER_27_8
*1695 FILLER_27_16
*1696 FILLER_27_26
*1697 FILLER_27_31
*1698 FILLER_27_41