*SPEF "ieee 1481-1999"
*DESIGN "b64_memory"
*DATE "18:31:42 Friday December 05, 2025"
*VENDOR "The OpenROAD Project"
*PROGRAM "OpenROAD"
*VERSION "v2.0-26293-g53af9e7c4e"
*DESIGN_FLOW "NAME_SCOPE LOCAL" "PIN_CAP NONE"
*DIVIDER /
*DELIMITER :
*BUS_DELIMITER []
*T_UNIT 1 NS
*C_UNIT 1 PF
*R_UNIT 1 OHM
*L_UNIT 1 HENRY

*NAME_MAP
*3 _000_
*4 _001_
*5 _002_
*6 _003_
*7 _004_
*8 _005_
*9 _006_
*10 _007_
*11 _008_
*12 _009_
*13 _010_
*14 _011_
*15 _012_
*16 _013_
*17 _014_
*18 _015_
*19 _016_
*20 _017_
*21 _018_
*22 _019_
*23 _020_
*24 _021_
*25 _022_
*26 _023_
*27 _024_
*28 _025_
*29 _026_
*30 _027_
*31 _028_
*32 _029_
*33 _030_
*34 _031_
*35 _032_
*36 _033_
*37 _034_
*38 _035_
*39 _036_
*40 _037_
*41 _038_
*42 _039_
*43 _040_
*44 _041_
*45 _042_
*46 _043_
*47 _044_
*48 _045_
*49 _046_
*50 _047_
*51 _048_
*52 _049_
*53 _050_
*54 _051_
*55 _052_
*56 _053_
*57 _054_
*58 _055_
*59 _056_
*60 _057_
*61 _058_
*62 _059_
*63 _060_
*64 _061_
*65 _062_
*66 _063_
*67 _064_
*68 _065_
*69 _066_
*70 _067_
*71 _068_
*72 _069_
*73 _070_
*74 _071_
*75 _072_
*76 _073_
*77 _074_
*78 _075_
*79 _076_
*80 _077_
*81 _078_
*82 _079_
*83 _080_
*84 _081_
*85 _082_
*86 _083_
*87 _084_
*88 _085_
*89 _086_
*90 _087_
*91 _088_
*92 _089_
*93 _090_
*94 _091_
*95 _092_
*96 _093_
*97 _094_
*98 _095_
*99 _096_
*100 _097_
*101 _098_
*102 _099_
*103 _100_
*104 _101_
*105 _102_
*106 _103_
*107 _104_
*108 _105_
*109 _106_
*110 _107_
*111 _108_
*112 _109_
*113 _110_
*114 _111_
*115 _112_
*116 _113_
*117 _114_
*118 _115_
*119 _116_
*120 _117_
*121 _118_
*122 _119_
*123 _120_
*124 _121_
*125 _122_
*126 _123_
*127 _124_
*128 _125_
*129 _126_
*130 _127_
*131 _128_
*132 _129_
*133 _130_
*134 _131_
*135 _132_
*136 _133_
*137 _134_
*138 _135_
*139 _136_
*140 _137_
*141 _138_
*142 _139_
*143 _140_
*144 _141_
*145 _142_
*146 _143_
*147 _144_
*148 _145_
*149 _146_
*150 _147_
*151 _148_
*152 _149_
*153 _150_
*154 _151_
*155 _152_
*156 _153_
*157 _154_
*158 _155_
*159 _156_
*160 _157_
*161 _158_
*162 _159_
*163 _160_
*164 _161_
*165 _162_
*166 _163_
*167 _164_
*168 _165_
*169 _166_
*170 _167_
*171 _168_
*172 _169_
*173 addr[0]
*174 addr[1]
*175 addr[2]
*176 clk
*177 rddata[0]
*178 rddata[1]
*179 rddata[2]
*180 rddata[3]
*181 rddata[4]
*182 rddata[5]
*183 rddata[6]
*184 rddata[7]
*185 rem_memory_temp\[0\][0]
*186 rem_memory_temp\[0\][1]
*187 rem_memory_temp\[0\][2]
*188 rem_memory_temp\[0\][3]
*189 rem_memory_temp\[0\][4]
*190 rem_memory_temp\[0\][5]
*191 rem_memory_temp\[0\][6]
*192 rem_memory_temp\[0\][7]
*193 rem_memory_temp\[1\][0]
*194 rem_memory_temp\[1\][1]
*195 rem_memory_temp\[1\][2]
*196 rem_memory_temp\[1\][3]
*197 rem_memory_temp\[1\][4]
*198 rem_memory_temp\[1\][5]
*199 rem_memory_temp\[1\][6]
*200 rem_memory_temp\[1\][7]
*201 rem_memory_temp\[2\][0]
*202 rem_memory_temp\[2\][1]
*203 rem_memory_temp\[2\][2]
*204 rem_memory_temp\[2\][3]
*205 rem_memory_temp\[2\][4]
*206 rem_memory_temp\[2\][5]
*207 rem_memory_temp\[2\][6]
*208 rem_memory_temp\[2\][7]
*209 rem_memory_temp\[3\][0]
*210 rem_memory_temp\[3\][1]
*211 rem_memory_temp\[3\][2]
*212 rem_memory_temp\[3\][3]
*213 rem_memory_temp\[3\][4]
*214 rem_memory_temp\[3\][5]
*215 rem_memory_temp\[3\][6]
*216 rem_memory_temp\[3\][7]
*217 rem_memory_temp\[4\][0]
*218 rem_memory_temp\[4\][1]
*219 rem_memory_temp\[4\][2]
*220 rem_memory_temp\[4\][3]
*221 rem_memory_temp\[4\][4]
*222 rem_memory_temp\[4\][5]
*223 rem_memory_temp\[4\][6]
*224 rem_memory_temp\[4\][7]
*225 rem_memory_temp\[5\][0]
*226 rem_memory_temp\[5\][1]
*227 rem_memory_temp\[5\][2]
*228 rem_memory_temp\[5\][3]
*229 rem_memory_temp\[5\][4]
*230 rem_memory_temp\[5\][5]
*231 rem_memory_temp\[5\][6]
*232 rem_memory_temp\[5\][7]
*233 rem_memory_temp\[6\][0]
*234 rem_memory_temp\[6\][1]
*235 rem_memory_temp\[6\][2]
*236 rem_memory_temp\[6\][3]
*237 rem_memory_temp\[6\][4]
*238 rem_memory_temp\[6\][5]
*239 rem_memory_temp\[6\][6]
*240 rem_memory_temp\[6\][7]
*241 rem_memory_temp\[7\][0]
*242 rem_memory_temp\[7\][1]
*243 rem_memory_temp\[7\][2]
*244 rem_memory_temp\[7\][3]
*245 rem_memory_temp\[7\][4]
*246 rem_memory_temp\[7\][5]
*247 rem_memory_temp\[7\][6]
*248 rem_memory_temp\[7\][7]
*249 rst
*250 we
*251 wrdata[0]
*252 wrdata[1]
*253 wrdata[2]
*254 wrdata[3]
*255 wrdata[4]
*256 wrdata[5]
*257 wrdata[6]
*258 wrdata[7]
*259 net1
*260 net2
*261 net3
*262 net4
*263 net5
*264 net6
*265 net7
*266 net8
*267 net9
*268 net10
*269 net11
*270 net12
*271 net13
*272 net14
*273 net15
*274 net16
*275 net17
*276 net18
*277 net19
*278 net20
*279 net21
*280 net22
*281 net23
*282 net24
*283 net25
*284 net26
*285 net27
*286 net28
*287 net29
*288 net30
*289 net31
*290 net32
*291 net33
*292 net34
*293 net35
*294 net36
*295 net37
*296 net38
*297 net39
*298 net40
*299 net41
*300 net42
*301 net43
*302 net44
*303 net45
*304 net46
*305 net47
*306 net48
*307 net49
*308 net50
*309 net51
*310 net52
*311 clknet_0_clk
*312 clknet_3_0__leaf_clk
*313 clknet_3_1__leaf_clk
*314 clknet_3_2__leaf_clk
*315 clknet_3_3__leaf_clk
*316 clknet_3_4__leaf_clk
*317 clknet_3_5__leaf_clk
*318 clknet_3_6__leaf_clk
*319 clknet_3_7__leaf_clk
*320 net53
*321 net54
*322 net55
*323 net56
*324 net57
*325 net58
*326 net59
*327 net60
*328 _170_
*329 _171_
*330 _172_
*331 _173_
*332 _174_
*333 _175_
*334 _176_
*335 _177_
*336 _178_
*337 _179_
*338 _180_
*339 _181_
*340 _182_
*341 _183_
*342 _184_
*343 _185_
*344 _186_
*345 _187_
*346 _188_
*347 _189_
*348 _190_
*349 _191_
*350 _192_
*351 _193_
*352 _194_
*353 _195_
*354 _196_
*355 _197_
*356 _198_
*357 _199_
*358 _200_
*359 _201_
*360 _202_
*361 _203_
*362 _204_
*363 _205_
*364 _206_
*365 _207_
*366 _208_
*367 _209_
*368 _210_
*369 _211_
*370 _212_
*371 _213_
*372 _214_
*373 _215_
*374 _216_
*375 _217_
*376 _218_
*377 _219_
*378 _220_
*379 _221_
*380 _222_
*381 _223_
*382 _224_
*383 _225_
*384 _226_
*385 _227_
*386 _228_
*387 _229_
*388 _230_
*389 _231_
*390 _232_
*391 _233_
*392 _234_
*393 _235_
*394 _236_
*395 _237_
*396 _238_
*397 _239_
*398 _240_
*399 _241_
*400 _242_
*401 _243_
*402 _244_
*403 _245_
*404 _246_
*405 _247_
*406 _248_
*407 _249_
*408 _250_
*409 _251_
*410 _252_
*411 _253_
*412 _254_
*413 _255_
*414 _256_
*415 _257_
*416 _258_
*417 _259_
*418 _260_
*419 _261_
*420 _262_
*421 _263_
*422 _264_
*423 _265_
*424 _266_
*425 _267_
*426 _268_
*427 _269_
*428 _270_
*429 _271_
*430 _272_
*431 _273_
*432 _274_
*433 _275_
*434 _276_
*435 _277_
*436 _278_
*437 _279_
*438 _280_
*439 _281_
*440 _282_
*441 _283_
*442 _284_
*443 _285_
*444 _286_
*445 _287_
*446 _288_
*447 _289_
*448 _290_
*449 _291_
*450 _292_
*451 _293_
*452 _294_
*453 _295_
*454 _296_
*455 _297_
*456 _298_
*457 _299_
*458 _300_
*459 _301_
*460 _302_
*461 _303_
*462 _304_
*463 _305_
*464 _306_
*465 _307_
*466 _308_
*467 _309_
*468 _310_
*469 _311_
*470 _312_
*471 _313_
*472 _314_
*473 _315_
*474 _316_
*475 _317_
*476 _318_
*477 _319_
*478 _320_
*479 _321_
*480 _322_
*481 _323_
*482 _324_
*483 _325_
*484 _326_
*485 _327_
*486 _328_
*487 _329_
*488 _330_
*489 _331_
*490 _332_
*491 _333_
*492 _334_
*493 _335_
*494 _336_
*495 _337_
*496 _338_
*497 _339_
*498 _340_
*499 _341_
*500 _342_
*501 _343_
*502 _344_
*503 _345_
*504 _346_
*505 _347_
*506 _348_
*507 _349_
*508 _350_
*509 _351_
*510 _352_
*511 _353_
*512 _354_
*513 _355_
*514 _356_
*515 _357_
*516 _358_
*517 _359_
*518 _360_
*519 _361_
*520 _362_
*521 _363_
*522 _364_
*523 _365_
*524 _366_
*525 _367_
*526 _368_
*527 _369_
*528 _370_
*529 _371_
*530 _372_
*531 _373_
*532 _374_
*533 _375_
*534 _376_
*535 _377_
*536 _378_
*537 _379_
*538 _380_
*539 _381_
*540 _382_
*541 _383_
*542 _384_
*543 _385_
*544 _386_
*545 _387_
*546 _388_
*547 _389_
*548 _390_
*549 _391_
*550 _392_
*551 _393_
*552 _394_
*553 _395_
*554 _396_
*555 _397_
*556 _398_
*557 _399_
*558 _400_
*559 _401_
*560 _402_
*561 _403_
*562 _404_
*563 _405_
*564 _406_
*565 _407_
*566 _408_
*567 _409_
*568 _410_
*569 _411_
*570 TAP_TAPCELL_ROW_0_0
*571 TAP_TAPCELL_ROW_0_1
*572 TAP_TAPCELL_ROW_0_2
*573 TAP_TAPCELL_ROW_0_3
*574 TAP_TAPCELL_ROW_0_4
*575 TAP_TAPCELL_ROW_0_5
*576 TAP_TAPCELL_ROW_0_6
*577 TAP_TAPCELL_ROW_0_7
*578 TAP_TAPCELL_ROW_0_8
*579 TAP_TAPCELL_ROW_1_9
*580 TAP_TAPCELL_ROW_1_10
*581 TAP_TAPCELL_ROW_1_11
*582 TAP_TAPCELL_ROW_1_12
*583 TAP_TAPCELL_ROW_2_13
*584 TAP_TAPCELL_ROW_2_14
*585 TAP_TAPCELL_ROW_2_15
*586 TAP_TAPCELL_ROW_2_16
*587 TAP_TAPCELL_ROW_2_17
*588 TAP_TAPCELL_ROW_3_18
*589 TAP_TAPCELL_ROW_3_19
*590 TAP_TAPCELL_ROW_3_20
*591 TAP_TAPCELL_ROW_3_21
*592 TAP_TAPCELL_ROW_4_22
*593 TAP_TAPCELL_ROW_4_23
*594 TAP_TAPCELL_ROW_4_24
*595 TAP_TAPCELL_ROW_4_25
*596 TAP_TAPCELL_ROW_4_26
*597 TAP_TAPCELL_ROW_5_27
*598 TAP_TAPCELL_ROW_5_28
*599 TAP_TAPCELL_ROW_5_29
*600 TAP_TAPCELL_ROW_5_30
*601 TAP_TAPCELL_ROW_6_31
*602 TAP_TAPCELL_ROW_6_32
*603 TAP_TAPCELL_ROW_6_33
*604 TAP_TAPCELL_ROW_6_34
*605 TAP_TAPCELL_ROW_6_35
*606 TAP_TAPCELL_ROW_7_36
*607 TAP_TAPCELL_ROW_7_37
*608 TAP_TAPCELL_ROW_7_38
*609 TAP_TAPCELL_ROW_7_39
*610 TAP_TAPCELL_ROW_8_40
*611 TAP_TAPCELL_ROW_8_41
*612 TAP_TAPCELL_ROW_8_42
*613 TAP_TAPCELL_ROW_8_43
*614 TAP_TAPCELL_ROW_8_44
*615 TAP_TAPCELL_ROW_9_45
*616 TAP_TAPCELL_ROW_9_46
*617 TAP_TAPCELL_ROW_9_47
*618 TAP_TAPCELL_ROW_9_48
*619 TAP_TAPCELL_ROW_10_49
*620 TAP_TAPCELL_ROW_10_50
*621 TAP_TAPCELL_ROW_10_51
*622 TAP_TAPCELL_ROW_10_52
*623 TAP_TAPCELL_ROW_10_53
*624 TAP_TAPCELL_ROW_11_54
*625 TAP_TAPCELL_ROW_11_55
*626 TAP_TAPCELL_ROW_11_56
*627 TAP_TAPCELL_ROW_11_57
*628 TAP_TAPCELL_ROW_12_58
*629 TAP_TAPCELL_ROW_12_59
*630 TAP_TAPCELL_ROW_12_60
*631 TAP_TAPCELL_ROW_12_61
*632 TAP_TAPCELL_ROW_12_62
*633 TAP_TAPCELL_ROW_13_63
*634 TAP_TAPCELL_ROW_13_64
*635 TAP_TAPCELL_ROW_13_65
*636 TAP_TAPCELL_ROW_13_66
*637 TAP_TAPCELL_ROW_14_67
*638 TAP_TAPCELL_ROW_14_68
*639 TAP_TAPCELL_ROW_14_69
*640 TAP_TAPCELL_ROW_14_70
*641 TAP_TAPCELL_ROW_14_71
*642 TAP_TAPCELL_ROW_15_72
*643 TAP_TAPCELL_ROW_15_73
*644 TAP_TAPCELL_ROW_15_74
*645 TAP_TAPCELL_ROW_15_75
*646 TAP_TAPCELL_ROW_16_76
*647 TAP_TAPCELL_ROW_16_77
*648 TAP_TAPCELL_ROW_16_78
*649 TAP_TAPCELL_ROW_16_79
*650 TAP_TAPCELL_ROW_16_80
*651 TAP_TAPCELL_ROW_17_81
*652 TAP_TAPCELL_ROW_17_82
*653 TAP_TAPCELL_ROW_17_83
*654 TAP_TAPCELL_ROW_17_84
*655 TAP_TAPCELL_ROW_18_85
*656 TAP_TAPCELL_ROW_18_86
*657 TAP_TAPCELL_ROW_18_87
*658 TAP_TAPCELL_ROW_18_88
*659 TAP_TAPCELL_ROW_18_89
*660 TAP_TAPCELL_ROW_19_90
*661 TAP_TAPCELL_ROW_19_91
*662 TAP_TAPCELL_ROW_19_92
*663 TAP_TAPCELL_ROW_19_93
*664 TAP_TAPCELL_ROW_20_94
*665 TAP_TAPCELL_ROW_20_95
*666 TAP_TAPCELL_ROW_20_96
*667 TAP_TAPCELL_ROW_20_97
*668 TAP_TAPCELL_ROW_20_98
*669 TAP_TAPCELL_ROW_21_99
*670 TAP_TAPCELL_ROW_21_100
*671 TAP_TAPCELL_ROW_21_101
*672 TAP_TAPCELL_ROW_21_102
*673 TAP_TAPCELL_ROW_22_103
*674 TAP_TAPCELL_ROW_22_104
*675 TAP_TAPCELL_ROW_22_105
*676 TAP_TAPCELL_ROW_22_106
*677 TAP_TAPCELL_ROW_22_107
*678 TAP_TAPCELL_ROW_23_108
*679 TAP_TAPCELL_ROW_23_109
*680 TAP_TAPCELL_ROW_23_110
*681 TAP_TAPCELL_ROW_23_111
*682 TAP_TAPCELL_ROW_24_112
*683 TAP_TAPCELL_ROW_24_113
*684 TAP_TAPCELL_ROW_24_114
*685 TAP_TAPCELL_ROW_24_115
*686 TAP_TAPCELL_ROW_24_116
*687 TAP_TAPCELL_ROW_25_117
*688 TAP_TAPCELL_ROW_25_118
*689 TAP_TAPCELL_ROW_25_119
*690 TAP_TAPCELL_ROW_25_120
*691 TAP_TAPCELL_ROW_26_121
*692 TAP_TAPCELL_ROW_26_122
*693 TAP_TAPCELL_ROW_26_123
*694 TAP_TAPCELL_ROW_26_124
*695 TAP_TAPCELL_ROW_26_125
*696 TAP_TAPCELL_ROW_27_126
*697 TAP_TAPCELL_ROW_27_127
*698 TAP_TAPCELL_ROW_27_128
*699 TAP_TAPCELL_ROW_27_129
*700 TAP_TAPCELL_ROW_27_130
*701 TAP_TAPCELL_ROW_27_131
*702 TAP_TAPCELL_ROW_27_132
*703 TAP_TAPCELL_ROW_27_133
*704 TAP_TAPCELL_ROW_27_134
*705 load_slew1
*706 max_cap2
*707 max_cap3
*708 wire4
*709 load_slew5
*710 load_slew6
*711 wire7
*712 load_slew8
*713 load_slew9
*714 load_slew10
*715 max_cap11
*716 load_slew12
*717 wire13
*718 load_slew14
*719 load_slew15
*720 wire16
*721 wire17
*722 max_cap18
*723 wire19
*724 wire20
*725 load_slew21
*726 wire22
*727 wire23
*728 load_slew24
*729 load_slew25
*730 fanout26
*731 load_slew27
*732 wire28
*733 load_slew29
*734 load_slew30
*735 load_slew31
*736 load_slew32
*737 load_slew33
*738 load_slew34
*739 fanout35
*740 load_slew36
*741 load_slew37
*742 wire38
*743 wire39
*744 load_slew40
*745 load_slew41
*746 fanout42
*747 fanout43
*748 fanout44
*749 fanout45
*750 fanout46
*751 fanout47
*752 load_slew48
*753 load_slew49
*754 load_slew50
*755 load_slew51
*756 load_slew52
*757 clkbuf_0_clk
*758 clkbuf_3_0__f_clk
*759 clkbuf_3_1__f_clk
*760 clkbuf_3_2__f_clk
*761 clkbuf_3_3__f_clk
*762 clkbuf_3_4__f_clk
*763 clkbuf_3_5__f_clk
*764 clkbuf_3_6__f_clk
*765 clkbuf_3_7__f_clk
*766 clkload0
*767 clkload1
*768 clkload2
*769 clkload3
*770 clkload4
*771 clkload5
*772 clkload6
*773 hold53
*774 hold54
*775 hold55
*776 hold56
*777 hold57
*778 hold58
*779 hold59
*780 hold60
*781 FILLER_0_0
*782 FILLER_0_8
*783 FILLER_0_16
*784 FILLER_0_20
*785 FILLER_0_26
*786 FILLER_0_31
*787 FILLER_0_38
*788 FILLER_0_46
*789 FILLER_0_54
*790 FILLER_0_58
*791 FILLER_0_61
*792 FILLER_0_69
*793 FILLER_0_77
*794 FILLER_0_81
*795 FILLER_0_86
*796 FILLER_0_91
*797 FILLER_0_95
*798 FILLER_0_97
*799 FILLER_0_116
*800 FILLER_0_121
*801 FILLER_0_129
*802 FILLER_0_137
*803 FILLER_0_145
*804 FILLER_0_149
*805 FILLER_0_151
*806 FILLER_0_155
*807 FILLER_0_162
*808 FILLER_0_170
*809 FILLER_0_178
*810 FILLER_0_181
*811 FILLER_0_189
*812 FILLER_0_197
*813 FILLER_0_205
*814 FILLER_0_209
*815 FILLER_0_211
*816 FILLER_0_219
*817 FILLER_0_227
*818 FILLER_0_235
*819 FILLER_0_239
*820 FILLER_0_241
*821 FILLER_0_249
*822 FILLER_0_257
*823 FILLER_0_265
*824 FILLER_0_269
*825 FILLER_0_271
*826 FILLER_0_279
*827 FILLER_0_281
*828 FILLER_1_0
*829 FILLER_1_8
*830 FILLER_1_12
*831 FILLER_1_17
*832 FILLER_1_45
*833 FILLER_1_53
*834 FILLER_1_57
*835 FILLER_1_59
*836 FILLER_1_61
*837 FILLER_1_69
*838 FILLER_1_71
*839 FILLER_1_76
*840 FILLER_1_84
*841 FILLER_1_109
*842 FILLER_1_117
*843 FILLER_1_119
*844 FILLER_1_121
*845 FILLER_1_129
*846 FILLER_1_137
*847 FILLER_1_143
*848 FILLER_1_151
*849 FILLER_1_163
*850 FILLER_1_171
*851 FILLER_1_179
*852 FILLER_1_181
*853 FILLER_1_189
*854 FILLER_1_197
*855 FILLER_1_205
*856 FILLER_1_209
*857 FILLER_1_211
*858 FILLER_1_236
*859 FILLER_1_241
*860 FILLER_1_269
*861 FILLER_1_277
*862 FILLER_1_281
*863 FILLER_2_0
*864 FILLER_2_8
*865 FILLER_2_16
*866 FILLER_2_26
*867 FILLER_2_31
*868 FILLER_2_59
*869 FILLER_2_67
*870 FILLER_2_71
*871 FILLER_2_76
*872 FILLER_2_86
*873 FILLER_2_91
*874 FILLER_2_119
*875 FILLER_2_127
*876 FILLER_2_135
*877 FILLER_2_139
*878 FILLER_2_146
*879 FILLER_2_151
*880 FILLER_2_179
*881 FILLER_2_187
*882 FILLER_2_195
*883 FILLER_2_199
*884 FILLER_2_201
*885 FILLER_2_206
*886 FILLER_2_211
*887 FILLER_2_215
*888 FILLER_2_241
*889 FILLER_2_263
*890 FILLER_2_267
*891 FILLER_2_269
*892 FILLER_2_271
*893 FILLER_2_279
*894 FILLER_2_281
*895 FILLER_3_0
*896 FILLER_3_4
*897 FILLER_3_10
*898 FILLER_3_22
*899 FILLER_3_50
*900 FILLER_3_58
*901 FILLER_3_61
*902 FILLER_3_75
*903 FILLER_3_85
*904 FILLER_3_113
*905 FILLER_3_117
*906 FILLER_3_119
*907 FILLER_3_121
*908 FILLER_3_129
*909 FILLER_3_133
*910 FILLER_3_138
*911 FILLER_3_148
*912 FILLER_3_176
*913 FILLER_3_181
*914 FILLER_3_189
*915 FILLER_3_197
*916 FILLER_3_201
*917 FILLER_3_207
*918 FILLER_3_215
*919 FILLER_3_225
*920 FILLER_3_229
*921 FILLER_3_236
*922 FILLER_3_241
*923 FILLER_3_269
*924 FILLER_3_277
*925 FILLER_3_281
*926 FILLER_4_0
*927 FILLER_4_8
*928 FILLER_4_16
*929 FILLER_4_26
*930 FILLER_4_31
*931 FILLER_4_57
*932 FILLER_4_65
*933 FILLER_4_69
*934 FILLER_4_71
*935 FILLER_4_76
*936 FILLER_4_86
*937 FILLER_4_91
*938 FILLER_4_119
*939 FILLER_4_127
*940 FILLER_4_131
*941 FILLER_4_136
*942 FILLER_4_146
*943 FILLER_4_151
*944 FILLER_4_179
*945 FILLER_4_187
*946 FILLER_4_195
*947 FILLER_4_203
*948 FILLER_4_207
*949 FILLER_4_209
*950 FILLER_4_211
*951 FILLER_4_215
*952 FILLER_4_223
*953 FILLER_4_233
*954 FILLER_4_261
*955 FILLER_4_269
*956 FILLER_4_271
*957 FILLER_4_279
*958 FILLER_4_281
*959 FILLER_5_0
*960 FILLER_5_8
*961 FILLER_5_20
*962 FILLER_5_48
*963 FILLER_5_56
*964 FILLER_5_61
*965 FILLER_5_69
*966 FILLER_5_74
*967 FILLER_5_82
*968 FILLER_5_110
*969 FILLER_5_118
*970 FILLER_5_121
*971 FILLER_5_129
*972 FILLER_5_137
*973 FILLER_5_143
*974 FILLER_5_171
*975 FILLER_5_179
*976 FILLER_5_181
*977 FILLER_5_189
*978 FILLER_5_197
*979 FILLER_5_201
*980 FILLER_5_206
*981 FILLER_5_214
*982 FILLER_5_224
*983 FILLER_5_228
*984 FILLER_5_236
*985 FILLER_5_241
*986 FILLER_5_249
*987 FILLER_5_257
*988 FILLER_5_265
*989 FILLER_5_273
*990 FILLER_5_281
*991 FILLER_6_0
*992 FILLER_6_8
*993 FILLER_6_16
*994 FILLER_6_20
*995 FILLER_6_26
*996 FILLER_6_31
*997 FILLER_6_35
*998 FILLER_6_41
*999 FILLER_6_49
*1000 FILLER_6_57
*1001 FILLER_6_65
*1002 FILLER_6_76
*1003 FILLER_6_86
*1004 FILLER_6_91
*1005 FILLER_6_99
*1006 FILLER_6_107
*1007 FILLER_6_115
*1008 FILLER_6_123
*1009 FILLER_6_131
*1010 FILLER_6_139
*1011 FILLER_6_147
*1012 FILLER_6_149
*1013 FILLER_6_151
*1014 FILLER_6_159
*1015 FILLER_6_185
*1016 FILLER_6_193
*1017 FILLER_6_201
*1018 FILLER_6_206
*1019 FILLER_6_211
*1020 FILLER_6_215
*1021 FILLER_6_217
*1022 FILLER_6_242
*1023 FILLER_6_264
*1024 FILLER_6_268
*1025 FILLER_6_271
*1026 FILLER_6_279
*1027 FILLER_6_281
*1028 FILLER_7_0
*1029 FILLER_7_8
*1030 FILLER_7_16
*1031 FILLER_7_42
*1032 FILLER_7_50
*1033 FILLER_7_58
*1034 FILLER_7_61
*1035 FILLER_7_69
*1036 FILLER_7_77
*1037 FILLER_7_105
*1038 FILLER_7_113
*1039 FILLER_7_117
*1040 FILLER_7_119
*1041 FILLER_7_121
*1042 FILLER_7_129
*1043 FILLER_7_137
*1044 FILLER_7_143
*1045 FILLER_7_171
*1046 FILLER_7_179
*1047 FILLER_7_181
*1048 FILLER_7_189
*1049 FILLER_7_197
*1050 FILLER_7_201
*1051 FILLER_7_206
*1052 FILLER_7_216
*1053 FILLER_7_220
*1054 FILLER_7_228
*1055 FILLER_7_236
*1056 FILLER_7_241
*1057 FILLER_7_269
*1058 FILLER_7_277
*1059 FILLER_7_281
*1060 FILLER_8_0
*1061 FILLER_8_8
*1062 FILLER_8_16
*1063 FILLER_8_26
*1064 FILLER_8_31
*1065 FILLER_8_39
*1066 FILLER_8_43
*1067 FILLER_8_69
*1068 FILLER_8_77
*1069 FILLER_8_79
*1070 FILLER_8_86
*1071 FILLER_8_91
*1072 FILLER_8_99
*1073 FILLER_8_107
*1074 FILLER_8_115
*1075 FILLER_8_123
*1076 FILLER_8_131
*1077 FILLER_8_136
*1078 FILLER_8_146
*1079 FILLER_8_151
*1080 FILLER_8_161
*1081 FILLER_8_171
*1082 FILLER_8_179
*1083 FILLER_8_187
*1084 FILLER_8_195
*1085 FILLER_8_203
*1086 FILLER_8_207
*1087 FILLER_8_209
*1088 FILLER_8_211
*1089 FILLER_8_219
*1090 FILLER_8_247
*1091 FILLER_8_255
*1092 FILLER_8_263
*1093 FILLER_8_267
*1094 FILLER_8_269
*1095 FILLER_8_271
*1096 FILLER_8_279
*1097 FILLER_8_281
*1098 FILLER_9_0
*1099 FILLER_9_8
*1100 FILLER_9_12
*1101 FILLER_9_17
*1102 FILLER_9_45
*1103 FILLER_9_55
*1104 FILLER_9_59
*1105 FILLER_9_61
*1106 FILLER_9_69
*1107 FILLER_9_75
*1108 FILLER_9_103
*1109 FILLER_9_111
*1110 FILLER_9_119
*1111 FILLER_9_121
*1112 FILLER_9_129
*1113 FILLER_9_133
*1114 FILLER_9_139
*1115 FILLER_9_167
*1116 FILLER_9_175
*1117 FILLER_9_179
*1118 FILLER_9_181
*1119 FILLER_9_189
*1120 FILLER_9_197
*1121 FILLER_9_205
*1122 FILLER_9_209
*1123 FILLER_9_216
*1124 FILLER_9_226
*1125 FILLER_9_236
*1126 FILLER_9_241
*1127 FILLER_9_249
*1128 FILLER_9_257
*1129 FILLER_9_265
*1130 FILLER_9_273
*1131 FILLER_9_281
*1132 FILLER_10_0
*1133 FILLER_10_8
*1134 FILLER_10_16
*1135 FILLER_10_26
*1136 FILLER_10_31
*1137 FILLER_10_59
*1138 FILLER_10_72
*1139 FILLER_10_86
*1140 FILLER_10_91
*1141 FILLER_10_117
*1142 FILLER_10_130
*1143 FILLER_10_138
*1144 FILLER_10_140
*1145 FILLER_10_146
*1146 FILLER_10_151
*1147 FILLER_10_177
*1148 FILLER_10_190
*1149 FILLER_10_198
*1150 FILLER_10_206
*1151 FILLER_10_211
*1152 FILLER_10_239
*1153 FILLER_10_247
*1154 FILLER_10_255
*1155 FILLER_10_263
*1156 FILLER_10_267
*1157 FILLER_10_269
*1158 FILLER_10_271
*1159 FILLER_10_279
*1160 FILLER_10_281
*1161 FILLER_11_0
*1162 FILLER_11_8
*1163 FILLER_11_12
*1164 FILLER_11_14
*1165 FILLER_11_21
*1166 FILLER_11_49
*1167 FILLER_11_57
*1168 FILLER_11_59
*1169 FILLER_11_61
*1170 FILLER_11_69
*1171 FILLER_11_73
*1172 FILLER_11_85
*1173 FILLER_11_113
*1174 FILLER_11_117
*1175 FILLER_11_119
*1176 FILLER_11_121
*1177 FILLER_11_129
*1178 FILLER_11_137
*1179 FILLER_11_162
*1180 FILLER_11_170
*1181 FILLER_11_178
*1182 FILLER_11_181
*1183 FILLER_11_189
*1184 FILLER_11_197
*1185 FILLER_11_199
*1186 FILLER_11_204
*1187 FILLER_11_232
*1188 FILLER_11_241
*1189 FILLER_11_245
*1190 FILLER_11_256
*1191 FILLER_11_264
*1192 FILLER_11_272
*1193 FILLER_11_280
*1194 FILLER_12_0
*1195 FILLER_12_8
*1196 FILLER_12_16
*1197 FILLER_12_26
*1198 FILLER_12_31
*1199 FILLER_12_57
*1200 FILLER_12_71
*1201 FILLER_12_75
*1202 FILLER_12_77
*1203 FILLER_12_86
*1204 FILLER_12_91
*1205 FILLER_12_101
*1206 FILLER_12_111
*1207 FILLER_12_119
*1208 FILLER_12_127
*1209 FILLER_12_135
*1210 FILLER_12_137
*1211 FILLER_12_146
*1212 FILLER_12_151
*1213 FILLER_12_159
*1214 FILLER_12_167
*1215 FILLER_12_169
*1216 FILLER_12_175
*1217 FILLER_12_203
*1218 FILLER_12_207
*1219 FILLER_12_209
*1220 FILLER_12_211
*1221 FILLER_12_219
*1222 FILLER_12_238
*1223 FILLER_12_266
*1224 FILLER_12_271
*1225 FILLER_12_279
*1226 FILLER_12_281
*1227 FILLER_13_0
*1228 FILLER_13_8
*1229 FILLER_13_16
*1230 FILLER_13_20
*1231 FILLER_13_45
*1232 FILLER_13_53
*1233 FILLER_13_57
*1234 FILLER_13_59
*1235 FILLER_13_61
*1236 FILLER_13_65
*1237 FILLER_13_74
*1238 FILLER_13_78
*1239 FILLER_13_103
*1240 FILLER_13_111
*1241 FILLER_13_119
*1242 FILLER_13_121
*1243 FILLER_13_125
*1244 FILLER_13_127
*1245 FILLER_13_134
*1246 FILLER_13_162
*1247 FILLER_13_170
*1248 FILLER_13_178
*1249 FILLER_13_181
*1250 FILLER_13_189
*1251 FILLER_13_191
*1252 FILLER_13_216
*1253 FILLER_13_224
*1254 FILLER_13_232
*1255 FILLER_13_241
*1256 FILLER_13_269
*1257 FILLER_13_277
*1258 FILLER_13_281
*1259 FILLER_14_0
*1260 FILLER_14_8
*1261 FILLER_14_16
*1262 FILLER_14_20
*1263 FILLER_14_26
*1264 FILLER_14_31
*1265 FILLER_14_41
*1266 FILLER_14_49
*1267 FILLER_14_57
*1268 FILLER_14_65
*1269 FILLER_14_73
*1270 FILLER_14_78
*1271 FILLER_14_86
*1272 FILLER_14_91
*1273 FILLER_14_99
*1274 FILLER_14_107
*1275 FILLER_14_115
*1276 FILLER_14_123
*1277 FILLER_14_127
*1278 FILLER_14_129
*1279 FILLER_14_136
*1280 FILLER_14_146
*1281 FILLER_14_151
*1282 FILLER_14_159
*1283 FILLER_14_167
*1284 FILLER_14_171
*1285 FILLER_14_173
*1286 FILLER_14_182
*1287 FILLER_14_192
*1288 FILLER_14_202
*1289 FILLER_14_211
*1290 FILLER_14_215
*1291 FILLER_14_220
*1292 FILLER_14_228
*1293 FILLER_14_236
*1294 FILLER_14_240
*1295 FILLER_14_266
*1296 FILLER_14_271
*1297 FILLER_14_279
*1298 FILLER_14_281
*1299 FILLER_15_0
*1300 FILLER_15_8
*1301 FILLER_15_16
*1302 FILLER_15_24
*1303 FILLER_15_49
*1304 FILLER_15_57
*1305 FILLER_15_59
*1306 FILLER_15_61
*1307 FILLER_15_69
*1308 FILLER_15_77
*1309 FILLER_15_79
*1310 FILLER_15_86
*1311 FILLER_15_98
*1312 FILLER_15_108
*1313 FILLER_15_116
*1314 FILLER_15_121
*1315 FILLER_15_129
*1316 FILLER_15_136
*1317 FILLER_15_144
*1318 FILLER_15_152
*1319 FILLER_15_160
*1320 FILLER_15_168
*1321 FILLER_15_176
*1322 FILLER_15_181
*1323 FILLER_15_191
*1324 FILLER_15_199
*1325 FILLER_15_207
*1326 FILLER_15_215
*1327 FILLER_15_222
*1328 FILLER_15_232
*1329 FILLER_15_241
*1330 FILLER_15_269
*1331 FILLER_15_277
*1332 FILLER_15_281
*1333 FILLER_16_0
*1334 FILLER_16_8
*1335 FILLER_16_16
*1336 FILLER_16_26
*1337 FILLER_16_31
*1338 FILLER_16_57
*1339 FILLER_16_65
*1340 FILLER_16_69
*1341 FILLER_16_74
*1342 FILLER_16_78
*1343 FILLER_16_86
*1344 FILLER_16_91
*1345 FILLER_16_119
*1346 FILLER_16_127
*1347 FILLER_16_135
*1348 FILLER_16_143
*1349 FILLER_16_147
*1350 FILLER_16_149
*1351 FILLER_16_151
*1352 FILLER_16_159
*1353 FILLER_16_163
*1354 FILLER_16_165
*1355 FILLER_16_171
*1356 FILLER_16_199
*1357 FILLER_16_207
*1358 FILLER_16_209
*1359 FILLER_16_211
*1360 FILLER_16_239
*1361 FILLER_16_256
*1362 FILLER_16_264
*1363 FILLER_16_268
*1364 FILLER_16_271
*1365 FILLER_16_279
*1366 FILLER_16_281
*1367 FILLER_17_0
*1368 FILLER_17_4
*1369 FILLER_17_11
*1370 FILLER_17_21
*1371 FILLER_17_29
*1372 FILLER_17_31
*1373 FILLER_17_56
*1374 FILLER_17_61
*1375 FILLER_17_69
*1376 FILLER_17_74
*1377 FILLER_17_88
*1378 FILLER_17_116
*1379 FILLER_17_121
*1380 FILLER_17_134
*1381 FILLER_17_142
*1382 FILLER_17_146
*1383 FILLER_17_158
*1384 FILLER_17_166
*1385 FILLER_17_176
*1386 FILLER_17_181
*1387 FILLER_17_213
*1388 FILLER_17_217
*1389 FILLER_17_236
*1390 FILLER_17_241
*1391 FILLER_17_269
*1392 FILLER_17_277
*1393 FILLER_17_281
*1394 FILLER_18_0
*1395 FILLER_18_8
*1396 FILLER_18_16
*1397 FILLER_18_26
*1398 FILLER_18_31
*1399 FILLER_18_39
*1400 FILLER_18_43
*1401 FILLER_18_69
*1402 FILLER_18_73
*1403 FILLER_18_75
*1404 FILLER_18_82
*1405 FILLER_18_91
*1406 FILLER_18_119
*1407 FILLER_18_135
*1408 FILLER_18_143
*1409 FILLER_18_147
*1410 FILLER_18_149
*1411 FILLER_18_151
*1412 FILLER_18_155
*1413 FILLER_18_161
*1414 FILLER_18_169
*1415 FILLER_18_179
*1416 FILLER_18_192
*1417 FILLER_18_202
*1418 FILLER_18_211
*1419 FILLER_18_219
*1420 FILLER_18_245
*1421 FILLER_18_249
*1422 FILLER_18_254
*1423 FILLER_18_262
*1424 FILLER_18_271
*1425 FILLER_18_279
*1426 FILLER_18_281
*1427 FILLER_19_0
*1428 FILLER_19_8
*1429 FILLER_19_12
*1430 FILLER_19_14
*1431 FILLER_19_19
*1432 FILLER_19_47
*1433 FILLER_19_55
*1434 FILLER_19_59
*1435 FILLER_19_61
*1436 FILLER_19_65
*1437 FILLER_19_72
*1438 FILLER_19_82
*1439 FILLER_19_110
*1440 FILLER_19_118
*1441 FILLER_19_121
*1442 FILLER_19_129
*1443 FILLER_19_137
*1444 FILLER_19_145
*1445 FILLER_19_154
*1446 FILLER_19_164
*1447 FILLER_19_172
*1448 FILLER_19_181
*1449 FILLER_19_191
*1450 FILLER_19_199
*1451 FILLER_19_207
*1452 FILLER_19_211
*1453 FILLER_19_217
*1454 FILLER_19_230
*1455 FILLER_19_238
*1456 FILLER_19_241
*1457 FILLER_19_269
*1458 FILLER_19_277
*1459 FILLER_19_281
*1460 FILLER_20_0
*1461 FILLER_20_8
*1462 FILLER_20_16
*1463 FILLER_20_20
*1464 FILLER_20_26
*1465 FILLER_20_31
*1466 FILLER_20_39
*1467 FILLER_20_43
*1468 FILLER_20_51
*1469 FILLER_20_59
*1470 FILLER_20_63
*1471 FILLER_20_68
*1472 FILLER_20_76
*1473 FILLER_20_86
*1474 FILLER_20_91
*1475 FILLER_20_101
*1476 FILLER_20_105
*1477 FILLER_20_125
*1478 FILLER_20_133
*1479 FILLER_20_141
*1480 FILLER_20_149
*1481 FILLER_20_151
*1482 FILLER_20_163
*1483 FILLER_20_171
*1484 FILLER_20_184
*1485 FILLER_20_194
*1486 FILLER_20_203
*1487 FILLER_20_207
*1488 FILLER_20_209
*1489 FILLER_20_211
*1490 FILLER_20_219
*1491 FILLER_20_227
*1492 FILLER_20_235
*1493 FILLER_20_243
*1494 FILLER_20_251
*1495 FILLER_20_259
*1496 FILLER_20_267
*1497 FILLER_20_269
*1498 FILLER_20_271
*1499 FILLER_20_279
*1500 FILLER_20_281
*1501 FILLER_21_0
*1502 FILLER_21_8
*1503 FILLER_21_16
*1504 FILLER_21_44
*1505 FILLER_21_52
*1506 FILLER_21_61
*1507 FILLER_21_69
*1508 FILLER_21_77
*1509 FILLER_21_81
*1510 FILLER_21_106
*1511 FILLER_21_114
*1512 FILLER_21_118
*1513 FILLER_21_121
*1514 FILLER_21_129
*1515 FILLER_21_137
*1516 FILLER_21_145
*1517 FILLER_21_149
*1518 FILLER_21_174
*1519 FILLER_21_178
*1520 FILLER_21_181
*1521 FILLER_21_193
*1522 FILLER_21_201
*1523 FILLER_21_209
*1524 FILLER_21_217
*1525 FILLER_21_221
*1526 FILLER_21_226
*1527 FILLER_21_236
*1528 FILLER_21_241
*1529 FILLER_21_269
*1530 FILLER_21_277
*1531 FILLER_21_281
*1532 FILLER_22_0
*1533 FILLER_22_8
*1534 FILLER_22_16
*1535 FILLER_22_26
*1536 FILLER_22_31
*1537 FILLER_22_39
*1538 FILLER_22_47
*1539 FILLER_22_51
*1540 FILLER_22_61
*1541 FILLER_22_69
*1542 FILLER_22_74
*1543 FILLER_22_83
*1544 FILLER_22_87
*1545 FILLER_22_89
*1546 FILLER_22_91
*1547 FILLER_22_95
*1548 FILLER_22_104
*1549 FILLER_22_108
*1550 FILLER_22_119
*1551 FILLER_22_127
*1552 FILLER_22_135
*1553 FILLER_22_139
*1554 FILLER_22_141
*1555 FILLER_22_146
*1556 FILLER_22_151
*1557 FILLER_22_155
*1558 FILLER_22_164
*1559 FILLER_22_186
*1560 FILLER_22_190
*1561 FILLER_22_200
*1562 FILLER_22_208
*1563 FILLER_22_211
*1564 FILLER_22_219
*1565 FILLER_22_245
*1566 FILLER_22_258
*1567 FILLER_22_266
*1568 FILLER_22_271
*1569 FILLER_22_279
*1570 FILLER_22_281
*1571 FILLER_23_0
*1572 FILLER_23_4
*1573 FILLER_23_6
*1574 FILLER_23_11
*1575 FILLER_23_21
*1576 FILLER_23_49
*1577 FILLER_23_57
*1578 FILLER_23_59
*1579 FILLER_23_61
*1580 FILLER_23_69
*1581 FILLER_23_75
*1582 FILLER_23_103
*1583 FILLER_23_111
*1584 FILLER_23_119
*1585 FILLER_23_121
*1586 FILLER_23_129
*1587 FILLER_23_135
*1588 FILLER_23_145
*1589 FILLER_23_173
*1590 FILLER_23_177
*1591 FILLER_23_179
*1592 FILLER_23_181
*1593 FILLER_23_189
*1594 FILLER_23_205
*1595 FILLER_23_215
*1596 FILLER_23_219
*1597 FILLER_23_221
*1598 FILLER_23_228
*1599 FILLER_23_236
*1600 FILLER_23_241
*1601 FILLER_23_269
*1602 FILLER_23_277
*1603 FILLER_23_281
*1604 FILLER_24_0
*1605 FILLER_24_4
*1606 FILLER_24_12
*1607 FILLER_24_26
*1608 FILLER_24_31
*1609 FILLER_24_59
*1610 FILLER_24_63
*1611 FILLER_24_71
*1612 FILLER_24_83
*1613 FILLER_24_87
*1614 FILLER_24_89
*1615 FILLER_24_91
*1616 FILLER_24_119
*1617 FILLER_24_131
*1618 FILLER_24_139
*1619 FILLER_24_146
*1620 FILLER_24_151
*1621 FILLER_24_179
*1622 FILLER_24_195
*1623 FILLER_24_206
*1624 FILLER_24_211
*1625 FILLER_24_219
*1626 FILLER_24_247
*1627 FILLER_24_257
*1628 FILLER_24_265
*1629 FILLER_24_269
*1630 FILLER_24_271
*1631 FILLER_24_279
*1632 FILLER_24_281
*1633 FILLER_25_0
*1634 FILLER_25_8
*1635 FILLER_25_12
*1636 FILLER_25_19
*1637 FILLER_25_47
*1638 FILLER_25_55
*1639 FILLER_25_59
*1640 FILLER_25_61
*1641 FILLER_25_69
*1642 FILLER_25_77
*1643 FILLER_25_105
*1644 FILLER_25_113
*1645 FILLER_25_117
*1646 FILLER_25_119
*1647 FILLER_25_121
*1648 FILLER_25_125
*1649 FILLER_25_130
*1650 FILLER_25_143
*1651 FILLER_25_171
*1652 FILLER_25_179
*1653 FILLER_25_181
*1654 FILLER_25_207
*1655 FILLER_25_215
*1656 FILLER_25_223
*1657 FILLER_25_230
*1658 FILLER_25_238
*1659 FILLER_25_241
*1660 FILLER_25_269
*1661 FILLER_25_277
*1662 FILLER_25_281
*1663 FILLER_26_0
*1664 FILLER_26_8
*1665 FILLER_26_16
*1666 FILLER_26_26
*1667 FILLER_26_31
*1668 FILLER_26_57
*1669 FILLER_26_61
*1670 FILLER_26_66
*1671 FILLER_26_76
*1672 FILLER_26_86
*1673 FILLER_26_91
*1674 FILLER_26_119
*1675 FILLER_26_127
*1676 FILLER_26_129
*1677 FILLER_26_136
*1678 FILLER_26_146
*1679 FILLER_26_151
*1680 FILLER_26_167
*1681 FILLER_26_180
*1682 FILLER_26_206
*1683 FILLER_26_211
*1684 FILLER_26_219
*1685 FILLER_26_226
*1686 FILLER_26_254
*1687 FILLER_26_262
*1688 FILLER_26_271
*1689 FILLER_26_279
*1690 FILLER_26_281
*1691 FILLER_27_0
*1692 FILLER_27_8
*1693 FILLER_27_16
*1694 FILLER_27_26
*1695 FILLER_27_31
*1696 FILLER_27_41
*1697 FILLER_27_49
*1698 FILLER_27_56